174250;227555;a1
     RDKit          2D

 31 33  0  0  0  0  0  0  0  0999 V2000
   -1.4853   -2.2935    0.0000 C   0  0  0  0  0  0  0  0  0  0  0  0
   -0.2083   -1.5066    0.0000 C   0  0  0  0  0  0  0  0  0  0  0  0
   -0.2513   -0.0072    0.0000 N   0  0  0  0  0  0  0  0  0  0  0  0
    1.0257    0.7797    0.0000 C   0  0  0  0  0  0  0  0  0  0  0  0
    0.9827    2.2791    0.0000 O   0  0  0  0  0  0  0  0  0  0  0  0
    2.3457    0.0673    0.0000 C   0  0  0  0  0  0  0  0  0  0  0  0
    3.6227    0.8542    0.0000 C   0  0  0  0  0  0  0  0  0  0  0  0
    4.9427    0.1417    0.0000 C   0  0  0  0  0  0  0  0  0  0  0  0
    6.2197    0.9287    0.0000 C   0  0  0  0  0  0  0  0  0  0  0  0
    7.5397    0.2162    0.0000 C   0  0  0  0  0  0  0  0  0  0  0  0
    8.8167    1.0031    0.0000 O   0  0  0  0  0  0  0  0  0  0  0  0
    8.7737    2.5025    0.0000 C   0  0  0  0  0  0  0  0  0  0  0  0
    7.5827   -1.2832    0.0000 C   0  0  0  0  0  0  0  0  0  0  0  0
    6.3057   -2.0701    0.0000 C   0  0  0  0  0  0  0  0  0  0  0  0
    4.9857   -1.3577    0.0000 C   0  0  0  0  0  0  0  0  0  0  0  0
    3.7087   -2.1446    0.0000 N   0  0  0  0  0  0  0  0  0  0  0  0
    2.3887   -1.4321    0.0000 C   0  0  0  0  0  0  0  0  0  0  0  0
    1.1117   -2.2190    0.0000 C   0  0  0  0  0  0  0  0  0  0  0  0
   -1.5713    0.7053    0.0000 C   0  0  0  0  0  0  0  0  0  0  0  0
   -1.6143    2.2046    0.0000 C   0  0  0  0  0  0  0  0  0  0  0  0
   -2.9343    2.9171    0.0000 C   0  0  0  0  0  0  0  0  0  0  0  0
   -4.2113    2.1302    0.0000 C   0  0  0  0  0  0  0  0  0  0  0  0
   -4.1683    0.6308    0.0000 N   0  0  0  0  0  0  0  0  0  0  0  0
   -5.4453   -0.1561    0.0000 C   0  0  0  0  0  0  0  0  0  0  0  0
   -5.4023   -1.6555    0.0000 O   0  0  0  0  0  0  0  0  0  0  0  0
   -6.7653    0.5563    0.0000 O   0  0  0  0  0  0  0  0  0  0  0  0
   -8.0423   -0.2306    0.0000 C   0  0  0  0  0  0  0  0  0  0  0  0
   -8.8293    1.0464    0.0000 C   0  0  0  0  0  0  0  0  0  0  0  0
   -7.2554   -1.5076    0.0000 C   0  0  0  0  0  0  0  0  0  0  0  0
   -9.3194   -1.0175    0.0000 C   0  0  0  0  0  0  0  0  0  0  0  0
   -2.8483   -0.0817    0.0000 C   0  0  0  0  0  0  0  0  0  0  0  0
  1  2  1  0
  2  3  1  0
  3  4  1  0
  4  5  2  0
  4  6  1  0
  6  7  2  0
  7  8  1  0
  8  9  2  0
  9 10  1  0
 10 11  1  0
 11 12  1  0
 10 13  2  0
 13 14  1  0
 14 15  2  0
 15 16  1  0
 16 17  2  0
 17 18  1  0
  3 19  1  0
 19 20  1  0
 20 21  1  0
 21 22  1  0
 22 23  1  0
 23 24  1  0
 24 25  2  0
 24 26  1  0
 26 27  1  0
 27 28  1  0
 27 29  1  0
 27 30  1  0
 23 31  1  0
 17  6  1  0
 31 19  1  0
 15  8  1  0
M  END
$$$$
39778;17771;17720;a80
     RDKit          2D

 28 30  0  0  0  0  0  0  0  0999 V2000
   -1.8808   -4.9156    0.0000 C   0  0  0  0  0  0  0  0  0  0  0  0
   -1.5738   -3.4473    0.0000 C   0  0  0  0  0  0  0  0  0  0  0  0
   -0.1488   -2.9790    0.0000 C   0  0  0  0  0  0  0  0  0  0  0  0
    0.1581   -1.5108    0.0000 C   0  0  0  0  0  0  0  0  0  0  0  0
   -0.9599   -0.5108    0.0000 C   0  0  0  0  0  0  0  0  0  0  0  0
   -2.3850   -0.9791    0.0000 N   0  0  0  0  0  0  0  0  0  0  0  0
   -3.5030    0.0208    0.0000 C   0  0  0  0  0  0  0  0  0  0  0  0
   -3.1961    1.4891    0.0000 C   0  0  0  0  0  0  0  0  0  0  0  0
   -4.3142    2.4890    0.0000 C   0  0  0  0  0  0  0  0  0  0  0  0
   -5.7392    2.0207    0.0000 C   0  0  0  0  0  0  0  0  0  0  0  0
   -6.8573    3.0207    0.0000 I   0  0  0  0  0  0  0  0  0  0  0  0
   -6.0461    0.5525    0.0000 C   0  0  0  0  0  0  0  0  0  0  0  0
   -4.9281   -0.4475    0.0000 C   0  0  0  0  0  0  0  0  0  0  0  0
   -5.2350   -1.9157    0.0000 Br  0  0  0  0  0  0  0  0  0  0  0  0
   -0.6530    0.9575    0.0000 N   0  0  0  0  0  0  0  0  0  0  0  0
    0.7720    1.4258    0.0000 C   0  0  0  0  0  0  0  0  0  0  0  0
    1.8901    0.4258    0.0000 N   0  0  0  0  0  0  0  0  0  0  0  0
    1.5832   -1.0424    0.0000 C   0  0  0  0  0  0  0  0  0  0  0  0
    2.7012   -2.0424    0.0000 N   0  0  0  0  0  0  0  0  0  0  0  0
    4.1263   -1.5741    0.0000 C   0  0  0  0  0  0  0  0  0  0  0  0
    5.2443   -2.5740    0.0000 C   0  0  0  0  0  0  0  0  0  0  0  0
    4.4332   -0.1058    0.0000 C   0  0  0  0  0  0  0  0  0  0  0  0
    5.8582    0.3625    0.0000 C   0  0  0  0  0  0  0  0  0  0  0  0
    6.1652    1.8308    0.0000 C   0  0  0  0  0  0  0  0  0  0  0  0
    5.0471    2.8307    0.0000 C   0  0  0  0  0  0  0  0  0  0  0  0
    3.6221    2.3624    0.0000 C   0  0  0  0  0  0  0  0  0  0  0  0
    2.5040    3.3623    0.0000 C   0  0  0  0  0  0  0  0  0  0  0  0
    3.3151    0.8941    0.0000 C   0  0  0  0  0  0  0  0  0  0  0  0
  1  2  2  0
  2  3  1  0
  3  4  1  0
  4  5  2  0
  5  6  1  0
  6  7  1  0
  7  8  2  0
  8  9  1  0
  9 10  2  0
 10 11  1  0
 10 12  1  0
 12 13  2  0
 13 14  1  0
  5 15  1  0
 15 16  2  0
 16 17  1  0
 17 18  2  0
 18 19  1  0
 19 20  1  0
 20 21  1  1
 20 22  1  0
 22 23  2  0
 23 24  1  0
 24 25  2  0
 25 26  1  0
 26 27  1  0
 26 28  2  0
 18  4  1  0
 28 22  1  0
 13  7  1  0
M  END
$$$$
