LIG
     RDKit          3D

 53 57  0  0  1  0  0  0  0  0999 V2000
   -0.7872   12.8089  -12.2992 H   0  0  0  0  0  0  0  0  0  0  0  0
   -1.6810   12.4903  -12.2318 O   0  0  0  0  0  0  0  0  0  0  0  0
   -2.2207   12.9887  -11.0250 C   0  0  2  0  0  0  0  0  0  0  0  0
   -1.6495   12.5822  -10.1897 H   0  0  0  0  0  0  0  0  0  0  0  0
   -3.6815   12.5709  -10.9758 C   0  0  0  0  0  0  0  0  0  0  0  0
   -3.8462   11.6095  -11.4691 H   0  0  0  0  0  0  0  0  0  0  0  0
   -3.9905   12.4692   -9.9390 H   0  0  0  0  0  0  0  0  0  0  0  0
   -4.4241   13.6755  -11.5866 N   0  0  0  0  0  0  0  0  0  0  0  0
   -5.6265   13.5854  -12.1973 C   0  0  0  0  0  0  0  0  0  0  0  0
   -6.0768   14.4908  -12.8958 O   0  0  0  0  0  0  0  0  0  0  0  0
   -6.4289   12.3272  -12.0050 C   0  0  0  0  0  0  0  0  0  0  0  0
   -6.6168   11.7969  -10.7099 C   0  0  0  0  0  0  0  0  0  0  0  0
   -6.2085   12.3107   -9.8540 H   0  0  0  0  0  0  0  0  0  0  0  0
   -7.2892   10.5758  -10.5034 C   0  0  0  0  0  0  0  0  0  0  0  0
   -7.8466    9.9372  -11.6429 C   0  0  0  0  0  0  0  0  0  0  0  0
   -7.7616   10.4948  -12.9294 C   0  0  0  0  0  0  0  0  0  0  0  0
   -8.2338   10.0090  -13.7712 H   0  0  0  0  0  0  0  0  0  0  0  0
   -7.0367   11.6895  -13.1113 C   0  0  0  0  0  0  0  0  0  0  0  0
   -6.9384   12.1042  -14.1037 H   0  0  0  0  0  0  0  0  0  0  0  0
   -8.4087    8.7895  -11.1253 N   0  0  0  0  0  0  0  0  0  0  0  0
   -8.9146    8.0807  -11.6463 H   0  0  0  0  0  0  0  0  0  0  0  0
   -8.2463    8.6650   -9.7838 N   0  0  0  0  0  0  0  0  0  0  0  0
   -7.5899    9.7283   -9.3851 C   0  0  0  0  0  0  0  0  0  0  0  0
   -7.2591    9.9313   -7.9327 C   0  0  0  0  0  0  0  0  0  0  0  0
   -8.0228   10.5596   -7.4737 H   0  0  0  0  0  0  0  0  0  0  0  0
   -7.3026    8.9850   -7.3918 H   0  0  0  0  0  0  0  0  0  0  0  0
   -5.8857   10.5450   -7.6982 C   0  0  0  0  0  0  0  0  0  0  0  0
   -4.7155    9.8390   -8.0465 C   0  0  0  0  0  0  0  0  0  0  0  0
   -4.7899    8.8534   -8.4813 H   0  0  0  0  0  0  0  0  0  0  0  0
   -3.4457   10.3996   -7.7905 C   0  0  0  0  0  0  0  0  0  0  0  0
   -2.5579    9.8333   -8.0362 H   0  0  0  0  0  0  0  0  0  0  0  0
   -3.3257   11.6858   -7.2212 C   0  0  0  0  0  0  0  0  0  0  0  0
   -2.0109   12.2862   -6.9485 C   0  0  0  0  0  0  0  0  0  0  0  0
   -0.9802   11.7445   -6.2408 C   0  0  0  0  0  0  0  0  0  0  0  0
   -0.8730   10.8064   -5.7341 H   0  0  0  0  0  0  0  0  0  0  0  0
    0.0037   12.7029   -6.1759 N   0  0  0  0  0  0  0  0  0  0  0  0
    1.2605   12.6437   -5.4522 C   0  0  0  0  0  0  0  0  0  0  0  0
    1.2787   11.7660   -4.8062 H   0  0  0  0  0  0  0  0  0  0  0  0
    2.1045   12.5820   -6.1327 H   0  0  0  0  0  0  0  0  0  0  0  0
    1.3738   13.5350   -4.8370 H   0  0  0  0  0  0  0  0  0  0  0  0
   -0.3416   13.8252   -6.8501 N   0  0  0  0  0  0  0  0  0  0  0  0
   -1.5621   13.5856   -7.3107 C   0  0  0  0  0  0  0  0  0  0  0  0
   -2.0765   14.3558   -7.8632 H   0  0  0  0  0  0  0  0  0  0  0  0
   -4.5022   12.3907   -6.8902 C   0  0  0  0  0  0  0  0  0  0  0  0
   -4.4324   13.3680   -6.4362 H   0  0  0  0  0  0  0  0  0  0  0  0
   -5.7707   11.8235   -7.1167 C   0  0  0  0  0  0  0  0  0  0  0  0
   -6.6533   12.3780   -6.8411 H   0  0  0  0  0  0  0  0  0  0  0  0
   -3.5752   14.8613  -11.7075 C   0  0  0  0  0  0  0  0  0  0  0  0
   -4.0336   15.7303  -11.2344 H   0  0  0  0  0  0  0  0  0  0  0  0
   -3.4217   15.0942  -12.7628 H   0  0  0  0  0  0  0  0  0  0  0  0
   -2.2458   14.5110  -11.0388 C   0  0  0  0  0  0  0  0  0  0  0  0
   -2.2410   14.8972  -10.0218 H   0  0  0  0  0  0  0  0  0  0  0  0
   -1.3883   14.9475  -11.5541 H   0  0  0  0  0  0  0  0  0  0  0  0
  1  2  1  0
  2  3  1  0
  3 51  1  0
  3  4  1  1
  3  5  1  0
  5  6  1  0
  5  7  1  0
  5  8  1  0
  8  9  1  0
  8 48  1  0
  9 10  2  0
  9 11  1  0
 11 18  1  0
 11 12  2  0
 12 13  1  0
 12 14  1  0
 14 23  1  0
 14 15  2  0
 15 16  1  0
 15 20  1  0
 16 17  1  0
 16 18  2  0
 18 19  1  0
 20 21  1  0
 20 22  1  0
 22 23  2  0
 23 24  1  0
 24 25  1  0
 24 26  1  0
 24 27  1  0
 27 46  1  0
 27 28  2  0
 28 29  1  0
 28 30  1  0
 30 31  1  0
 30 32  2  0
 32 33  1  0
 32 44  1  0
 33 42  1  0
 33 34  2  0
 34 35  1  0
 34 36  1  0
 36 37  1  0
 36 41  1  0
 37 38  1  0
 37 39  1  0
 37 40  1  0
 41 42  2  0
 42 43  1  0
 44 45  1  0
 44 46  2  0
 46 47  1  0
 48 49  1  0
 48 50  1  0
 48 51  1  0
 51 52  1  0
 51 53  1  0
M  END
$$$$
