1R4L_XX5
     RDKit          3D

 51 52  0  0  0  0  0  0  0  0999 V2000
   45.5510    8.3834   32.6120 Cl  0  0  0  0  0  0  0  0  0  0  0  0
   42.2662    4.5142   34.3935 Cl  0  0  0  0  0  0  0  0  0  0  0  0
   38.2895    6.5966   23.4622 O   0  0  0  0  0  0  0  0  0  0  0  0
   38.3440    6.9105   24.6416 C   0  0  0  0  0  0  0  0  0  0  0  0
   38.2781    8.2027   24.9864 O   0  0  0  0  0  0  0  0  0  0  0  0
   38.4779    5.9146   25.7937 C   0  0  2  0  0  0  0  0  0  0  0  0
   37.2026    5.5654   26.5775 C   0  0  0  0  0  0  0  0  0  0  0  0
   35.8290    6.0374   26.0922 C   0  0  0  0  0  0  0  0  0  0  0  0
   34.7880    5.5686   27.1174 C   0  0  0  0  0  0  0  0  0  0  0  0
   35.4335    5.4890   24.7261 C   0  0  0  0  0  0  0  0  0  0  0  0
   39.4687    6.3280   26.8189 N   0  0  0  0  0  0  0  0  0  0  0  0
   40.8774    6.0270   26.5020 C   0  0  2  0  0  0  0  0  0  0  0  0
   41.1174    4.5893   26.0278 C   0  0  0  0  0  0  0  0  0  0  0  0
   41.4300    4.2918   24.8841 O   0  0  0  0  0  0  0  0  0  0  0  0
   40.9324    3.6192   26.9350 O   0  0  0  0  0  0  0  0  0  0  0  0
   41.7612    6.3211   27.7364 C   0  0  0  0  0  0  0  0  0  0  0  0
   43.2077    6.1799   27.4024 C   0  0  0  0  0  0  0  0  0  0  0  0
   43.8886    6.7372   26.3319 C   0  0  0  0  0  0  0  0  0  0  0  0
   45.1762    6.3122   26.3179 N   0  0  0  0  0  0  0  0  0  0  0  0
   45.2945    5.5217   27.3659 C   0  0  0  0  0  0  0  0  0  0  0  0
   44.1350    5.4272   28.1035 N   0  0  0  0  0  0  0  0  0  0  0  0
   43.9393    4.5584   29.2995 C   0  0  0  0  0  0  0  0  0  0  0  0
   43.9132    5.2124   30.6989 C   0  0  0  0  0  0  0  0  0  0  0  0
   44.6599    6.3688   30.9945 C   0  0  0  0  0  0  0  0  0  0  0  0
   44.6472    6.9390   32.2881 C   0  0  0  0  0  0  0  0  0  0  0  0
   43.9097    6.3664   33.3273 C   0  0  0  0  0  0  0  0  0  0  0  0
   43.1854    4.6271   31.7842 C   0  0  0  0  0  0  0  0  0  0  0  0
   43.1785    5.2069   33.0810 C   0  0  0  0  0  0  0  0  0  0  0  0
   38.1898    8.6678   24.1271 H   0  0  0  0  0  0  0  0  0  0  0  0
   38.7979    4.9788   25.3207 H   0  0  0  0  0  0  0  0  0  0  0  0
   37.1821    4.4717   26.6991 H   0  0  0  0  0  0  0  0  0  0  0  0
   37.3032    5.9395   27.6083 H   0  0  0  0  0  0  0  0  0  0  0  0
   35.8074    7.1330   26.0581 H   0  0  0  0  0  0  0  0  0  0  0  0
   33.7865    5.9155   26.8401 H   0  0  0  0  0  0  0  0  0  0  0  0
   34.7578    4.4758   27.1902 H   0  0  0  0  0  0  0  0  0  0  0  0
   35.0080    5.9698   28.1127 H   0  0  0  0  0  0  0  0  0  0  0  0
   36.0167    5.9233   23.9154 H   0  0  0  0  0  0  0  0  0  0  0  0
   34.3837    5.7145   24.5063 H   0  0  0  0  0  0  0  0  0  0  0  0
   35.5554    4.4010   24.6852 H   0  0  0  0  0  0  0  0  0  0  0  0
   39.3564    7.3323   26.9793 H   0  0  0  0  0  0  0  0  0  0  0  0
   41.1743    6.6835   25.6738 H   0  0  0  0  0  0  0  0  0  0  0  0
   41.0762    2.7998   26.4164 H   0  0  0  0  0  0  0  0  0  0  0  0
   41.4808    5.6666   28.5693 H   0  0  0  0  0  0  0  0  0  0  0  0
   41.5893    7.3506   28.0771 H   0  0  0  0  0  0  0  0  0  0  0  0
   43.5101    7.4013   25.5649 H   0  0  0  0  0  0  0  0  0  0  0  0
   46.1987    4.9961   27.6460 H   0  0  0  0  0  0  0  0  0  0  0  0
   42.9990    4.0245   29.1220 H   0  0  0  0  0  0  0  0  0  0  0  0
   44.7517    3.8222   29.2798 H   0  0  0  0  0  0  0  0  0  0  0  0
   45.2531    6.8533   30.2196 H   0  0  0  0  0  0  0  0  0  0  0  0
   43.9088    6.8201   34.3143 H   0  0  0  0  0  0  0  0  0  0  0  0
   42.6080    3.7191   31.6145 H   0  0  0  0  0  0  0  0  0  0  0  0
  1 25  1  0
  2 28  1  0
  3  4  2  0
  4  5  1  0
  4  6  1  0
  6  7  1  0
  6 11  1  0
  7  8  1  0
  8  9  1  0
  8 10  1  0
 11 12  1  0
 12 13  1  0
 12 16  1  0
 13 14  2  0
 13 15  1  0
 16 17  1  0
 17 18  2  0
 17 21  1  0
 18 19  1  0
 19 20  2  0
 20 21  1  0
 21 22  1  0
 22 23  1  0
 23 24  2  0
 23 27  1  0
 24 25  1  0
 25 26  2  0
 26 28  1  0
 27 28  2  0
  5 29  1  0
  6 30  1  6
  7 31  1  0
  7 32  1  0
  8 33  1  0
  9 34  1  0
  9 35  1  0
  9 36  1  0
 10 37  1  0
 10 38  1  0
 10 39  1  0
 11 40  1  0
 12 41  1  6
 15 42  1  0
 16 43  1  0
 16 44  1  0
 18 45  1  0
 20 46  1  0
 22 47  1  0
 22 48  1  0
 24 49  1  0
 26 50  1  0
 27 51  1  0
M  END
>  <Molname>  (1) 
1R4L_XX5

$$$$
