1R4L_XX5
     RDKit          3D

 28 29  0  0  0  0  0  0  0  0999 V2000
   45.5690    8.4330   32.6490 Cl  0  0  0  0  0  0  0  0  0  0  0  0
   42.2250    4.5190   34.5160 Cl  0  0  0  0  0  0  0  0  0  0  0  0
   38.2750    6.5680   23.4960 O   0  0  0  0  0  0  0  0  0  0  0  0
   38.3290    6.9780   24.6450 C   0  0  0  0  0  0  0  0  0  0  0  0
   38.2580    8.1710   24.8880 O   0  0  0  0  0  0  0  0  0  0  0  0
   38.4970    5.9530   25.7980 C   0  0  2  0  0  0  0  0  0  0  0  0
   37.2120    5.5410   26.5440 C   0  0  0  0  0  0  0  0  0  0  0  0
   35.8460    6.0590   26.1190 C   0  0  2  0  0  0  0  0  0  0  0  0
   34.8290    5.5310   27.1100 C   0  0  0  0  0  0  0  0  0  0  0  0
   35.4450    5.5210   24.7410 C   0  0  0  0  0  0  0  0  0  0  0  0
   39.4770    6.3660   26.8120 N   0  0  0  0  0  0  0  0  0  0  0  0
   40.8700    6.0060   26.5230 C   0  0  2  0  0  0  0  0  0  0  0  0
   41.1040    4.5290   26.0730 C   0  0  0  0  0  0  0  0  0  0  0  0
   41.4430    4.3310   24.9100 O   0  0  0  0  0  0  0  0  0  0  0  0
   40.9570    3.6150   26.8740 O   0  0  0  0  0  0  0  0  0  0  0  0
   41.7770    6.3410   27.7390 C   0  0  0  0  0  0  0  0  0  0  0  0
   43.2350    6.1620   27.3570 C   0  0  0  0  0  0  0  0  0  0  0  0
   43.8580    6.7710   26.2490 C   0  0  0  0  0  0  0  0  0  0  0  0
   45.1210    6.3640   26.2460 N   0  0  0  0  0  0  0  0  0  0  0  0
   45.2640    5.5430   27.3090 C   0  0  0  0  0  0  0  0  0  0  0  0
   44.1580    5.3670   28.0440 N   0  0  0  0  0  0  0  0  0  0  0  0
   43.9510    4.5190   29.3010 C   0  0  0  0  0  0  0  0  0  0  0  0
   43.9250    5.1530   30.7230 C   0  0  0  0  0  0  0  0  0  0  0  0
   44.6660    6.3460   30.9900 C   0  0  0  0  0  0  0  0  0  0  0  0
   44.6530    6.9500   32.3070 C   0  0  0  0  0  0  0  0  0  0  0  0
   43.9050    6.3810   33.3690 C   0  0  0  0  0  0  0  0  0  0  0  0
   43.1710    4.5910   31.8240 C   0  0  0  0  0  0  0  0  0  0  0  0
   43.1620    5.2070   33.1460 C   0  0  0  0  0  0  0  0  0  0  0  0
  1 25  1  0
  2 28  1  0
  3  4  2  0
  4  5  1  0
  4  6  1  0
  6  7  1  1
  6 11  1  0
  7  8  1  0
  8  9  1  1
  8 10  1  0
 11 12  1  0
 12 13  1  0
 12 16  1  1
 13 14  2  0
 13 15  1  0
 16 17  1  0
 17 18  2  0
 17 21  1  0
 18 19  1  0
 19 20  2  0
 20 21  1  0
 21 22  1  0
 22 23  1  0
 23 24  2  0
 23 27  1  0
 24 25  1  0
 25 26  2  0
 26 28  1  0
 27 28  2  0
M  END
>  <Molname>
1R4L_XX5

$$$$
