1R4L_XX5
     RDKit          3D

 51 52  0  0  0  0  0  0  0  0999 V2000
    2.6801    3.4663    1.6358 C   0  0  0  0  0  0  0  0  0  0  0  0
    1.2000    3.0940    1.7666 C   0  0  0  0  0  0  0  0  0  0  0  0
    0.7498    3.2746    3.2166 C   0  0  0  0  0  0  0  0  0  0  0  0
    0.9830    1.6546    1.2554 C   0  0  0  0  0  0  0  0  0  0  0  0
   -0.4781    1.1774    1.2468 C   0  0  2  0  0  0  0  0  0  0  0  0
   -0.4845   -0.2555    0.8254 N   0  0  0  0  0  0  0  0  0  0  0  0
   -1.7547   -0.9370    1.1888 C   0  0  1  0  0  0  0  0  0  0  0  0
   -2.0241   -2.1677    0.2920 C   0  0  0  0  0  0  0  0  0  0  0  0
   -2.3404   -1.7905   -1.1242 C   0  0  0  0  0  0  0  0  0  0  0  0
   -3.4150   -1.0860   -1.6337 C   0  0  0  0  0  0  0  0  0  0  0  0
   -3.3146   -0.9370   -2.9889 N   0  0  0  0  0  0  0  0  0  0  0  0
   -2.2112   -1.5625   -3.3228 C   0  0  0  0  0  0  0  0  0  0  0  0
   -1.5754   -2.0906   -2.2303 N   0  0  0  0  0  0  0  0  0  0  0  0
   -0.3526   -2.8786   -2.3016 C   0  0  0  0  0  0  0  0  0  0  0  0
    0.8654   -2.0928   -1.8809 C   0  0  0  0  0  0  0  0  0  0  0  0
    1.2591   -0.9342   -2.5700 C   0  0  0  0  0  0  0  0  0  0  0  0
    2.3860   -0.2167   -2.1616 C   0  0  0  0  0  0  0  0  0  0  0  0
    2.8355    1.2124   -3.0081 Cl  0  0  0  0  0  0  0  0  0  0  0  0
    3.1438   -0.6400   -1.0746 C   0  0  0  0  0  0  0  0  0  0  0  0
    2.7643   -1.7910   -0.3923 C   0  0  0  0  0  0  0  0  0  0  0  0
    3.6876   -2.3244    0.9583 Cl  0  0  0  0  0  0  0  0  0  0  0  0
    1.6405   -2.5189   -0.7904 C   0  0  0  0  0  0  0  0  0  0  0  0
   -1.7026   -1.3652    2.6575 C   0  0  0  0  0  0  0  0  0  0  0  0
   -2.1527   -0.7301    3.6001 O   0  0  0  0  0  0  0  0  0  0  0  0
   -1.0343   -2.5158    2.8810 O   0  0  0  0  0  0  0  0  0  0  0  0
   -1.2982    2.0147    0.2523 C   0  0  0  0  0  0  0  0  0  0  0  0
   -1.9775    2.9934    0.5130 O   0  0  0  0  0  0  0  0  0  0  0  0
   -1.1941    1.5627   -1.0196 O   0  0  0  0  0  0  0  0  0  0  0  0
    2.8515    4.4995    1.9557 H   0  0  0  0  0  0  0  0  0  0  0  0
    3.0125    3.3808    0.5957 H   0  0  0  0  0  0  0  0  0  0  0  0
    3.3105    2.8126    2.2483 H   0  0  0  0  0  0  0  0  0  0  0  0
    0.6303    3.7903    1.1399 H   0  0  0  0  0  0  0  0  0  0  0  0
    1.2387    2.5508    3.8774 H   0  0  0  0  0  0  0  0  0  0  0  0
   -0.3327    3.1523    3.3166 H   0  0  0  0  0  0  0  0  0  0  0  0
    0.9949    4.2796    3.5770 H   0  0  0  0  0  0  0  0  0  0  0  0
    1.5812    0.9686    1.8713 H   0  0  0  0  0  0  0  0  0  0  0  0
    1.3880    1.5911    0.2368 H   0  0  0  0  0  0  0  0  0  0  0  0
   -0.9219    1.2721    2.2415 H   0  0  0  0  0  0  0  0  0  0  0  0
   -0.4157   -0.2355   -0.1986 H   0  0  0  0  0  0  0  0  0  0  0  0
   -2.6079   -0.2539    1.0846 H   0  0  0  0  0  0  0  0  0  0  0  0
   -2.8821   -2.7247    0.6925 H   0  0  0  0  0  0  0  0  0  0  0  0
   -1.1790   -2.8629    0.3339 H   0  0  0  0  0  0  0  0  0  0  0  0
   -4.2541   -0.6710   -1.0889 H   0  0  0  0  0  0  0  0  0  0  0  0
   -1.8296   -1.6620   -4.3311 H   0  0  0  0  0  0  0  0  0  0  0  0
   -0.5027   -3.7685   -1.6803 H   0  0  0  0  0  0  0  0  0  0  0  0
   -0.2266   -3.2272   -3.3336 H   0  0  0  0  0  0  0  0  0  0  0  0
    0.6830   -0.5760   -3.4211 H   0  0  0  0  0  0  0  0  0  0  0  0
    4.0159   -0.0753   -0.7580 H   0  0  0  0  0  0  0  0  0  0  0  0
    1.3621   -3.4109   -0.2321 H   0  0  0  0  0  0  0  0  0  0  0  0
   -1.0047   -2.5801    3.8587 H   0  0  0  0  0  0  0  0  0  0  0  0
   -1.7970    2.1347   -1.5412 H   0  0  0  0  0  0  0  0  0  0  0  0
  1  2  1  0
  2  3  1  0
  2  4  1  0
  4  5  1  0
  5  6  1  0
  6  7  1  0
  7  8  1  0
  8  9  1  0
  9 10  2  0
 10 11  1  0
 11 12  2  0
 12 13  1  0
 13 14  1  0
 14 15  1  0
 15 16  2  0
 16 17  1  0
 17 18  1  0
 17 19  2  0
 19 20  1  0
 20 21  1  0
 20 22  2  0
  7 23  1  0
 23 24  2  0
 23 25  1  0
  5 26  1  0
 26 27  2  0
 26 28  1  0
 13  9  1  0
 22 15  1  0
  1 29  1  0
  1 30  1  0
  1 31  1  0
  2 32  1  0
  3 33  1  0
  3 34  1  0
  3 35  1  0
  4 36  1  0
  4 37  1  0
  5 38  1  1
  6 39  1  0
  7 40  1  1
  8 41  1  0
  8 42  1  0
 10 43  1  0
 12 44  1  0
 14 45  1  0
 14 46  1  0
 16 47  1  0
 19 48  1  0
 22 49  1  0
 25 50  1  0
 28 51  1  0
M  END
>  <Molname>  (1) 
1R4L_XX5

$$$$
Z3789708712
     RDKit          3D

 60 63  0  0  0  0  0  0  0  0999 V2000
    2.9801    0.9242    2.5056 O   0  0  0  0  0  0  0  0  0  0  0  0
    3.1558    0.4925    1.3696 C   0  0  0  0  0  0  0  0  0  0  0  0
    4.1310   -0.6037    1.1513 C   0  0  0  0  0  0  0  0  0  0  0  0
    3.9715   -1.7386    1.9601 C   0  0  0  0  0  0  0  0  0  0  0  0
    4.8042   -2.8366    1.7851 C   0  0  0  0  0  0  0  0  0  0  0  0
    5.7995   -2.8003    0.8100 C   0  0  0  0  0  0  0  0  0  0  0  0
    5.9966   -1.6605    0.0125 C   0  0  0  0  0  0  0  0  0  0  0  0
    7.0233   -1.6409   -0.9452 C   0  0  0  0  0  0  0  0  0  0  0  0
    7.2552   -0.5106   -1.7273 C   0  0  0  0  0  0  0  0  0  0  0  0
    6.4688    0.6205   -1.5563 C   0  0  0  0  0  0  0  0  0  0  0  0
    5.4411    0.6166   -0.6113 C   0  0  0  0  0  0  0  0  0  0  0  0
    5.1673   -0.5242    0.1830 C   0  0  0  0  0  0  0  0  0  0  0  0
    2.4008    0.9551    0.2822 N   0  0  0  0  0  0  0  0  0  0  0  0
    1.9147    0.0269   -0.7460 C   0  0  0  0  0  0  0  0  0  0  0  0
    0.5620   -0.5814   -0.3187 C   0  0  0  0  0  0  0  0  0  0  0  0
   -0.4279    0.5178    0.0404 N   0  0  0  0  0  4  0  0  0  0  0  0
   -1.8073   -0.0121    0.4046 C   0  0  0  0  0  0  0  0  0  0  0  0
   -2.8493    1.0446   -0.0346 C   0  0  1  0  0  0  0  0  0  0  0  0
   -2.3186    1.6344   -1.2444 O   0  0  0  0  0  0  0  0  0  0  0  0
   -4.3133    0.5320   -0.2373 C   0  0  0  0  0  0  0  0  0  0  0  0
   -5.2325    1.7721   -0.4458 C   0  0  0  0  0  0  0  0  0  0  0  0
   -4.7355    2.5726   -1.5163 O   0  0  0  0  0  0  0  0  0  0  0  0
   -4.4078   -0.3908   -1.4854 C   0  0  0  0  0  0  0  0  0  0  0  0
   -5.7404   -1.1296   -1.5698 C   0  0  0  0  0  0  0  0  0  0  0  0
   -5.9786   -1.8414   -0.3589 O   0  0  0  0  0  0  0  0  0  0  0  0
   -6.1174   -0.9783    0.7644 C   0  0  0  0  0  0  0  0  0  0  0  0
   -4.8017   -0.2460    1.0103 C   0  0  0  0  0  0  0  0  0  0  0  0
    0.1303    1.5084    1.0619 C   0  0  0  0  0  0  0  0  0  0  0  0
    1.4760    2.0546    0.5609 C   0  0  0  0  0  0  0  0  0  0  0  0
    3.2047   -1.7643    2.7313 H   0  0  0  0  0  0  0  0  0  0  0  0
    4.6901   -3.7187    2.4112 H   0  0  0  0  0  0  0  0  0  0  0  0
    6.4445   -3.6705    0.6911 H   0  0  0  0  0  0  0  0  0  0  0  0
    7.6660   -2.5090   -1.0835 H   0  0  0  0  0  0  0  0  0  0  0  0
    8.0619   -0.5103   -2.4567 H   0  0  0  0  0  0  0  0  0  0  0  0
    6.6629    1.5115   -2.1488 H   0  0  0  0  0  0  0  0  0  0  0  0
    4.8666    1.5323   -0.4891 H   0  0  0  0  0  0  0  0  0  0  0  0
    1.7982    0.5953   -1.6759 H   0  0  0  0  0  0  0  0  0  0  0  0
    2.6274   -0.7787   -0.9346 H   0  0  0  0  0  0  0  0  0  0  0  0
    0.6696   -1.2108    0.5713 H   0  0  0  0  0  0  0  0  0  0  0  0
    0.1265   -1.1623   -1.1377 H   0  0  0  0  0  0  0  0  0  0  0  0
   -0.6246    1.0630   -0.8242 H   0  0  0  0  0  0  0  0  0  0  0  0
   -1.8299   -0.2259    1.4775 H   0  0  0  0  0  0  0  0  0  0  0  0
   -1.9308   -0.9435   -0.1528 H   0  0  0  0  0  0  0  0  0  0  0  0
   -2.8557    1.8430    0.7180 H   0  0  0  0  0  0  0  0  0  0  0  0
   -3.0564    2.1747   -1.6232 H   0  0  0  0  0  0  0  0  0  0  0  0
   -6.2633    1.4937   -0.6805 H   0  0  0  0  0  0  0  0  0  0  0  0
   -5.2489    2.3962    0.4547 H   0  0  0  0  0  0  0  0  0  0  0  0
   -5.4186    3.2474   -1.7049 H   0  0  0  0  0  0  0  0  0  0  0  0
   -3.6224   -1.1528   -1.4320 H   0  0  0  0  0  0  0  0  0  0  0  0
   -4.2405    0.1675   -2.4132 H   0  0  0  0  0  0  0  0  0  0  0  0
   -6.5785   -0.4563   -1.7784 H   0  0  0  0  0  0  0  0  0  0  0  0
   -5.7037   -1.8614   -2.3835 H   0  0  0  0  0  0  0  0  0  0  0  0
   -6.9559   -0.2910    0.6096 H   0  0  0  0  0  0  0  0  0  0  0  0
   -6.3611   -1.5986    1.6330 H   0  0  0  0  0  0  0  0  0  0  0  0
   -4.0590   -1.0075    1.2761 H   0  0  0  0  0  0  0  0  0  0  0  0
   -4.8989    0.4221    1.8739 H   0  0  0  0  0  0  0  0  0  0  0  0
   -0.5971    2.3169    1.1746 H   0  0  0  0  0  0  0  0  0  0  0  0
    0.2339    0.9641    2.0063 H   0  0  0  0  0  0  0  0  0  0  0  0
    1.3382    2.6185   -0.3692 H   0  0  0  0  0  0  0  0  0  0  0  0
    1.9068    2.7382    1.3004 H   0  0  0  0  0  0  0  0  0  0  0  0
  1  2  2  0
  2  3  1  0
  3  4  2  0
  4  5  1  0
  5  6  2  0
  6  7  1  0
  7  8  2  0
  8  9  1  0
  9 10  2  0
 10 11  1  0
 11 12  2  0
  2 13  1  0
 13 14  1  0
 14 15  1  0
 15 16  1  0
 16 17  1  0
 17 18  1  0
 18 19  1  0
 18 20  1  0
 20 21  1  0
 21 22  1  0
 20 23  1  0
 23 24  1  0
 24 25  1  0
 25 26  1  0
 26 27  1  0
 16 28  1  0
 28 29  1  0
 12  3  1  0
 29 13  1  0
 12  7  1  0
 27 20  1  0
  4 30  1  0
  5 31  1  0
  6 32  1  0
  8 33  1  0
  9 34  1  0
 10 35  1  0
 11 36  1  0
 14 37  1  0
 14 38  1  0
 15 39  1  0
 15 40  1  0
 16 41  1  0
 17 42  1  0
 17 43  1  0
 18 44  1  1
 19 45  1  0
 21 46  1  0
 21 47  1  0
 22 48  1  0
 23 49  1  0
 23 50  1  0
 24 51  1  0
 24 52  1  0
 26 53  1  0
 26 54  1  0
 27 55  1  0
 27 56  1  0
 28 57  1  0
 28 58  1  0
 29 59  1  0
 29 60  1  0
M  CHG  1  16   1
M  END
>  <Molname>  (2) 
Z3789708712

$$$$
Z1635086545
     RDKit          3D

 57 59  0  0  0  0  0  0  0  0999 V2000
    4.6442   -1.0561    0.2411 C   0  0  0  0  0  0  0  0  0  0  0  0
    4.0817   -1.5949   -1.0749 C   0  0  0  0  0  0  0  0  0  0  0  0
    5.1850   -2.3221   -1.8486 C   0  0  0  0  0  0  0  0  0  0  0  0
    2.8855   -2.5448   -0.8603 C   0  0  0  0  0  0  0  0  0  0  0  0
    1.6782   -1.9178   -0.1541 C   0  0  2  0  0  0  0  0  0  0  0  0
    0.6309   -2.9515    0.0690 N   0  0  0  0  0  0  0  0  0  0  0  0
   -0.5999   -2.7595    0.6319 C   0  0  0  0  0  0  0  0  0  0  0  0
   -1.4851   -3.5968    0.4342 O   0  0  0  0  0  0  0  0  0  0  0  0
   -0.9152   -1.4940    1.4398 C   0  0  0  0  0  0  0  0  0  0  0  0
   -1.3935   -0.2931    0.6275 N   0  0  2  0  0  4  0  0  0  0  0  0
   -2.0587    0.7772    1.4385 C   0  0  0  0  0  0  0  0  0  0  0  0
   -1.3486    1.1349    2.7205 C   0  0  0  0  0  0  0  0  0  0  0  0
   -0.0926    1.7603    2.6867 C   0  0  0  0  0  0  0  0  0  0  0  0
    0.5738    2.0743    3.8715 C   0  0  0  0  0  0  0  0  0  0  0  0
   -0.0073    1.7715    5.1007 C   0  0  0  0  0  0  0  0  0  0  0  0
   -1.2559    1.1551    5.1481 C   0  0  0  0  0  0  0  0  0  0  0  0
   -1.9252    0.8376    3.9649 C   0  0  0  0  0  0  0  0  0  0  0  0
   -2.1607   -0.6573   -0.6379 C   0  0  0  0  0  0  0  0  0  0  0  0
   -2.3526    0.5251   -1.5877 C   0  0  0  0  0  0  0  0  0  0  0  0
   -3.3906    1.2949   -1.4120 N   0  0  0  0  0  0  0  0  0  0  0  0
   -3.4720    2.3535   -2.3269 C   0  0  0  0  0  0  0  0  0  0  0  0
   -4.5173    3.3037   -2.3360 C   0  0  0  0  0  0  0  0  0  0  0  0
   -4.3326    4.2295   -3.3450 C   0  0  0  0  0  0  0  0  0  0  0  0
   -2.9013    3.9245   -4.2519 S   0  0  0  0  0  0  0  0  0  0  0  0
   -2.5389    2.5684   -3.3029 C   0  0  0  0  0  0  0  0  0  0  0  0
   -1.3933    1.7235   -3.4752 C   0  0  0  0  0  0  0  0  0  0  0  0
   -0.5180    1.8651   -4.3215 O   0  0  0  0  0  0  0  0  0  0  0  0
   -1.3827    0.6938   -2.5585 N   0  0  0  0  0  0  0  0  0  0  0  0
    1.1273   -0.7166   -0.9626 C   0  0  0  0  0  0  0  0  0  0  0  0
    0.6906   -0.9324   -2.1259 O   0  0  0  0  0  0  0  0  0  0  0  0
    0.8619    0.3092   -0.2577 O   0  0  0  0  0  1  0  0  0  0  0  0
    5.5392   -0.4505    0.0617 H   0  0  0  0  0  0  0  0  0  0  0  0
    3.9193   -0.4155    0.7522 H   0  0  0  0  0  0  0  0  0  0  0  0
    4.9187   -1.8713    0.9190 H   0  0  0  0  0  0  0  0  0  0  0  0
    3.7601   -0.7420   -1.6847 H   0  0  0  0  0  0  0  0  0  0  0  0
    5.5624   -3.1842   -1.2881 H   0  0  0  0  0  0  0  0  0  0  0  0
    6.0280   -1.6516   -2.0471 H   0  0  0  0  0  0  0  0  0  0  0  0
    4.8118   -2.6812   -2.8136 H   0  0  0  0  0  0  0  0  0  0  0  0
    3.2192   -3.4172   -0.2817 H   0  0  0  0  0  0  0  0  0  0  0  0
    2.5684   -2.9389   -1.8357 H   0  0  0  0  0  0  0  0  0  0  0  0
    1.9652   -1.5732    0.8454 H   0  0  0  0  0  0  0  0  0  0  0  0
    0.6341   -3.7284   -0.5845 H   0  0  0  0  0  0  0  0  0  0  0  0
   -0.0358   -1.1873    2.0132 H   0  0  0  0  0  0  0  0  0  0  0  0
   -1.7196   -1.7456    2.1409 H   0  0  0  0  0  0  0  0  0  0  0  0
   -0.5035    0.1558    0.2875 H   0  0  0  0  0  0  0  0  0  0  0  0
   -3.0799    0.4348    1.6431 H   0  0  0  0  0  0  0  0  0  0  0  0
   -2.1174    1.6799    0.8218 H   0  0  0  0  0  0  0  0  0  0  0  0
    0.3840    2.0033    1.7362 H   0  0  0  0  0  0  0  0  0  0  0  0
    1.5483    2.5562    3.8330 H   0  0  0  0  0  0  0  0  0  0  0  0
    0.5134    2.0199    6.0225 H   0  0  0  0  0  0  0  0  0  0  0  0
   -1.7085    0.9252    6.1100 H   0  0  0  0  0  0  0  0  0  0  0  0
   -2.9009    0.3596    4.0289 H   0  0  0  0  0  0  0  0  0  0  0  0
   -1.6228   -1.4436   -1.1689 H   0  0  0  0  0  0  0  0  0  0  0  0
   -3.1341   -1.0457   -0.3195 H   0  0  0  0  0  0  0  0  0  0  0  0
   -5.3565    3.3172   -1.6534 H   0  0  0  0  0  0  0  0  0  0  0  0
   -4.9626    5.0708   -3.5998 H   0  0  0  0  0  0  0  0  0  0  0  0
   -0.5473    0.0884   -2.5931 H   0  0  0  0  0  0  0  0  0  0  0  0
  1  2  1  0
  2  3  1  0
  2  4  1  0
  4  5  1  0
  5  6  1  0
  6  7  1  0
  7  8  2  0
  7  9  1  0
  9 10  1  0
 10 11  1  0
 11 12  1  0
 12 13  2  0
 13 14  1  0
 14 15  2  0
 15 16  1  0
 16 17  2  0
 10 18  1  0
 18 19  1  0
 19 20  2  0
 20 21  1  0
 21 22  1  0
 22 23  2  0
 23 24  1  0
 24 25  1  0
 25 26  1  0
 26 27  2  0
 26 28  1  0
  5 29  1  0
 29 30  2  0
 29 31  1  0
 17 12  1  0
 28 19  1  0
 25 21  2  0
  1 32  1  0
  1 33  1  0
  1 34  1  0
  2 35  1  0
  3 36  1  0
  3 37  1  0
  3 38  1  0
  4 39  1  0
  4 40  1  0
  5 41  1  1
  6 42  1  0
  9 43  1  0
  9 44  1  0
 10 45  1  6
 11 46  1  0
 11 47  1  0
 13 48  1  0
 14 49  1  0
 15 50  1  0
 16 51  1  0
 17 52  1  0
 18 53  1  0
 18 54  1  0
 22 55  1  0
 23 56  1  0
 28 57  1  0
M  CHG  2  10   1  31  -1
M  END
>  <Molname>  (3) 
Z1635086545

$$$$
Z3789802936
     RDKit          3D

 58 61  0  0  0  0  0  0  0  0999 V2000
    2.7394    0.6525    2.3710 O   0  0  0  0  0  0  0  0  0  0  0  0
    3.1116    0.6848    1.1992 C   0  0  0  0  0  0  0  0  0  0  0  0
    4.3550    0.0858    0.7748 C   0  0  0  0  0  0  0  0  0  0  0  0
    5.1203    0.2531   -0.3677 C   0  0  0  0  0  0  0  0  0  0  0  0
    6.2626   -0.5883   -0.2744 C   0  0  0  0  0  0  0  0  0  0  0  0
    7.3557   -0.8545   -1.1204 C   0  0  0  0  0  0  0  0  0  0  0  0
    8.3369   -1.7615   -0.7034 C   0  0  0  0  0  0  0  0  0  0  0  0
    8.2418   -2.3922    0.5353 C   0  0  0  0  0  0  0  0  0  0  0  0
    7.1687   -2.1368    1.3943 C   0  0  0  0  0  0  0  0  0  0  0  0
    6.1950   -1.2310    0.9590 C   0  0  0  0  0  0  0  0  0  0  0  0
    5.0599   -0.7785    1.5866 N   0  0  0  0  0  0  0  0  0  0  0  0
    2.3133    1.2978    0.2219 N   0  0  0  0  0  0  0  0  0  0  0  0
    1.9042    0.5090   -0.9464 C   0  0  0  0  0  0  0  0  0  0  0  0
    0.6592   -0.3449   -0.6249 C   0  0  0  0  0  0  0  0  0  0  0  0
   -0.4567    0.5301   -0.0809 N   0  0  0  0  0  4  0  0  0  0  0  0
   -1.7426   -0.2407    0.1914 C   0  0  0  0  0  0  0  0  0  0  0  0
   -2.9316    0.7281   -0.0192 C   0  0  1  0  0  0  0  0  0  0  0  0
   -2.5648    1.5428   -1.1575 O   0  0  0  0  0  0  0  0  0  0  0  0
   -4.3225    0.0301   -0.1941 C   0  0  0  0  0  0  0  0  0  0  0  0
   -4.5158   -1.0415    0.9121 C   0  0  0  0  0  0  0  0  0  0  0  0
   -4.0932   -0.5133    2.1623 O   0  0  0  0  0  0  0  0  0  0  0  0
   -5.4375    1.1107   -0.0573 C   0  0  0  0  0  0  0  0  0  0  0  0
   -6.8155    0.6071   -0.4780 C   0  0  0  0  0  0  0  0  0  0  0  0
   -6.7599    0.0704   -1.7950 O   0  0  0  0  0  0  0  0  0  0  0  0
   -5.8951   -1.0544   -1.8946 C   0  0  0  0  0  0  0  0  0  0  0  0
   -4.4604   -0.6353   -1.5875 C   0  0  0  0  0  0  0  0  0  0  0  0
   -0.0058    1.3729    1.1101 C   0  0  0  0  0  0  0  0  0  0  0  0
    1.2519    2.1717    0.7269 C   0  0  0  0  0  0  0  0  0  0  0  0
    4.8938    0.9155   -1.1932 H   0  0  0  0  0  0  0  0  0  0  0  0
    7.4453   -0.3630   -2.0848 H   0  0  0  0  0  0  0  0  0  0  0  0
    9.1855   -1.9707   -1.3510 H   0  0  0  0  0  0  0  0  0  0  0  0
    9.0192   -3.0889    0.8429 H   0  0  0  0  0  0  0  0  0  0  0  0
    7.1062   -2.6225    2.3629 H   0  0  0  0  0  0  0  0  0  0  0  0
    4.7745   -1.0396    2.5217 H   0  0  0  0  0  0  0  0  0  0  0  0
    1.6836    1.2115   -1.7584 H   0  0  0  0  0  0  0  0  0  0  0  0
    2.7001   -0.1567   -1.2853 H   0  0  0  0  0  0  0  0  0  0  0  0
    0.2845   -0.8310   -1.5312 H   0  0  0  0  0  0  0  0  0  0  0  0
    0.8749   -1.0977    0.1411 H   0  0  0  0  0  0  0  0  0  0  0  0
   -0.7447    1.1888   -0.8311 H   0  0  0  0  0  0  0  0  0  0  0  0
   -1.6825   -0.6719    1.1943 H   0  0  0  0  0  0  0  0  0  0  0  0
   -1.7766   -1.0437   -0.5514 H   0  0  0  0  0  0  0  0  0  0  0  0
   -2.9745    1.4125    0.8368 H   0  0  0  0  0  0  0  0  0  0  0  0
   -3.3140    2.1359   -1.3638 H   0  0  0  0  0  0  0  0  0  0  0  0
   -3.9116   -1.9323    0.7091 H   0  0  0  0  0  0  0  0  0  0  0  0
   -5.5556   -1.3659    1.0057 H   0  0  0  0  0  0  0  0  0  0  0  0
   -4.4912   -1.0680    2.8623 H   0  0  0  0  0  0  0  0  0  0  0  0
   -5.1999    1.9634   -0.7036 H   0  0  0  0  0  0  0  0  0  0  0  0
   -5.4832    1.4969    0.9678 H   0  0  0  0  0  0  0  0  0  0  0  0
   -7.5234    1.4424   -0.4893 H   0  0  0  0  0  0  0  0  0  0  0  0
   -7.2156   -0.1429    0.2119 H   0  0  0  0  0  0  0  0  0  0  0  0
   -5.9565   -1.4317   -2.9205 H   0  0  0  0  0  0  0  0  0  0  0  0
   -6.2432   -1.8541   -1.2318 H   0  0  0  0  0  0  0  0  0  0  0  0
   -3.7983   -1.5038   -1.6758 H   0  0  0  0  0  0  0  0  0  0  0  0
   -4.1562    0.0789   -2.3625 H   0  0  0  0  0  0  0  0  0  0  0  0
   -0.8241    2.0498    1.3699 H   0  0  0  0  0  0  0  0  0  0  0  0
    0.1782    0.6798    1.9369 H   0  0  0  0  0  0  0  0  0  0  0  0
    1.6160    2.7385    1.5912 H   0  0  0  0  0  0  0  0  0  0  0  0
    1.0153    2.8928   -0.0646 H   0  0  0  0  0  0  0  0  0  0  0  0
  1  2  2  0
  2  3  1  0
  3  4  2  0
  4  5  1  0
  5  6  2  0
  6  7  1  0
  7  8  2  0
  8  9  1  0
  9 10  2  0
 10 11  1  0
  2 12  1  0
 12 13  1  0
 13 14  1  0
 14 15  1  0
 15 16  1  0
 16 17  1  0
 17 18  1  0
 17 19  1  0
 19 20  1  0
 20 21  1  0
 19 22  1  0
 22 23  1  0
 23 24  1  0
 24 25  1  0
 25 26  1  0
 15 27  1  0
 27 28  1  0
 11  3  1  0
 28 12  1  0
 10  5  1  0
 26 19  1  0
  4 29  1  0
  6 30  1  0
  7 31  1  0
  8 32  1  0
  9 33  1  0
 11 34  1  0
 13 35  1  0
 13 36  1  0
 14 37  1  0
 14 38  1  0
 15 39  1  0
 16 40  1  0
 16 41  1  0
 17 42  1  1
 18 43  1  0
 20 44  1  0
 20 45  1  0
 21 46  1  0
 22 47  1  0
 22 48  1  0
 23 49  1  0
 23 50  1  0
 25 51  1  0
 25 52  1  0
 26 53  1  0
 26 54  1  0
 27 55  1  0
 27 56  1  0
 28 57  1  0
 28 58  1  0
M  CHG  1  15   1
M  END
>  <Molname>  (4) 
Z3789802936

$$$$
Z2945557218
     RDKit          3D

 57 60  0  0  0  0  0  0  0  0999 V2000
   -3.7704    2.7424    2.4926 C   0  0  0  0  0  0  0  0  0  0  0  0
   -3.2573    1.3104    2.2839 C   0  0  1  0  0  0  0  0  0  0  0  0
   -4.0133    0.6530    1.1340 C   0  0  0  0  0  0  0  0  0  0  0  0
   -3.6555    0.6976   -0.1340 N   0  0  0  0  0  0  0  0  0  0  0  0
   -4.5700    0.0049   -0.9129 C   0  0  0  0  0  0  0  0  0  0  0  0
   -4.5185   -0.1418   -2.3140 C   0  0  0  0  0  0  0  0  0  0  0  0
   -5.5104   -0.8756   -2.9731 C   0  0  0  0  0  0  0  0  0  0  0  0
   -6.5471   -1.4627   -2.2547 C   0  0  0  0  0  0  0  0  0  0  0  0
   -6.6206   -1.3314   -0.8647 C   0  0  0  0  0  0  0  0  0  0  0  0
   -5.6203   -0.5910   -0.2135 C   0  0  0  0  0  0  0  0  0  0  0  0
   -5.4403   -0.2521    1.4631 S   0  0  0  0  0  0  0  0  0  0  0  0
   -1.7647    1.2569    2.1880 N   0  0  0  0  0  0  0  0  0  0  0  0
   -1.1869    2.0946    1.1196 C   0  0  0  0  0  0  0  0  0  0  0  0
    0.3554    2.0440    1.0933 C   0  0  0  0  0  0  0  0  0  0  0  0
    0.8305    0.6133    0.9867 N   0  0  0  0  0  4  0  0  0  0  0  0
    2.3385    0.4933    0.8307 C   0  0  0  0  0  0  0  0  0  0  0  0
    2.6482   -0.8039    0.0475 C   0  0  1  0  0  0  0  0  0  0  0  0
    1.6515   -0.9134   -0.9858 O   0  0  0  0  0  0  0  0  0  0  0  0
    4.1147   -0.8495   -0.4793 C   0  0  0  0  0  0  0  0  0  0  0  0
    4.9413   -0.4822    0.6349 O   0  0  0  0  0  0  0  0  0  0  0  0
    4.3516    0.1418   -1.6334 C   0  0  0  0  0  0  0  0  0  0  0  0
    5.6985   -0.0819   -2.3107 C   0  0  0  0  0  0  0  0  0  0  0  0
    5.8146   -1.4353   -2.7336 O   0  0  0  0  0  0  0  0  0  0  0  0
    5.8102   -2.3493   -1.6433 C   0  0  0  0  0  0  0  0  0  0  0  0
    4.4727   -2.2840   -0.9173 C   0  0  0  0  0  0  0  0  0  0  0  0
    0.2627   -0.2258    2.1091 C   0  0  0  0  0  0  0  0  0  0  0  0
   -1.2762   -0.1345    2.1089 C   0  0  0  0  0  0  0  0  0  0  0  0
   -3.2185    3.2449    3.2946 H   0  0  0  0  0  0  0  0  0  0  0  0
   -4.8283    2.7347    2.7802 H   0  0  0  0  0  0  0  0  0  0  0  0
   -3.6913    3.3480    1.5831 H   0  0  0  0  0  0  0  0  0  0  0  0
   -3.5070    0.7691    3.2076 H   0  0  0  0  0  0  0  0  0  0  0  0
   -3.7136    0.3208   -2.8757 H   0  0  0  0  0  0  0  0  0  0  0  0
   -5.4729   -0.9836   -4.0551 H   0  0  0  0  0  0  0  0  0  0  0  0
   -7.3147   -2.0282   -2.7804 H   0  0  0  0  0  0  0  0  0  0  0  0
   -7.4341   -1.7871   -0.3075 H   0  0  0  0  0  0  0  0  0  0  0  0
   -1.4652    3.1435    1.2646 H   0  0  0  0  0  0  0  0  0  0  0  0
   -1.5454    1.7938    0.1308 H   0  0  0  0  0  0  0  0  0  0  0  0
    0.7896    2.4668    2.0063 H   0  0  0  0  0  0  0  0  0  0  0  0
    0.7356    2.5840    0.2198 H   0  0  0  0  0  0  0  0  0  0  0  0
    0.4596    0.2287    0.0972 H   0  0  0  0  0  0  0  0  0  0  0  0
    2.6509    1.3692    0.2548 H   0  0  0  0  0  0  0  0  0  0  0  0
    2.7968    0.5263    1.8241 H   0  0  0  0  0  0  0  0  0  0  0  0
    2.4926   -1.6481    0.7307 H   0  0  0  0  0  0  0  0  0  0  0  0
    1.8505   -1.7013   -1.5283 H   0  0  0  0  0  0  0  0  0  0  0  0
    5.8818   -0.5831    0.3957 H   0  0  0  0  0  0  0  0  0  0  0  0
    4.3114    1.1773   -1.2791 H   0  0  0  0  0  0  0  0  0  0  0  0
    3.5698    0.0120   -2.3914 H   0  0  0  0  0  0  0  0  0  0  0  0
    5.7766    0.5545   -3.1981 H   0  0  0  0  0  0  0  0  0  0  0  0
    6.5350    0.1743   -1.6505 H   0  0  0  0  0  0  0  0  0  0  0  0
    6.6518   -2.1354   -0.9751 H   0  0  0  0  0  0  0  0  0  0  0  0
    5.9633   -3.3550   -2.0479 H   0  0  0  0  0  0  0  0  0  0  0  0
    4.5062   -2.9542   -0.0504 H   0  0  0  0  0  0  0  0  0  0  0  0
    3.7053   -2.6608   -1.6031 H   0  0  0  0  0  0  0  0  0  0  0  0
    0.5795   -1.2605    1.9496 H   0  0  0  0  0  0  0  0  0  0  0  0
    0.6874    0.1482    3.0475 H   0  0  0  0  0  0  0  0  0  0  0  0
   -1.6460   -0.6323    1.2042 H   0  0  0  0  0  0  0  0  0  0  0  0
   -1.6454   -0.7039    2.9702 H   0  0  0  0  0  0  0  0  0  0  0  0
  1  2  1  0
  2  3  1  0
  3  4  2  0
  4  5  1  0
  5  6  2  0
  6  7  1  0
  7  8  2  0
  8  9  1  0
  9 10  2  0
 10 11  1  0
  2 12  1  0
 12 13  1  0
 13 14  1  0
 14 15  1  0
 15 16  1  0
 16 17  1  0
 17 18  1  0
 17 19  1  0
 19 20  1  0
 19 21  1  0
 21 22  1  0
 22 23  1  0
 23 24  1  0
 24 25  1  0
 15 26  1  0
 26 27  1  0
 11  3  1  0
 27 12  1  0
 10  5  1  0
 25 19  1  0
  1 28  1  0
  1 29  1  0
  1 30  1  0
  2 31  1  1
  6 32  1  0
  7 33  1  0
  8 34  1  0
  9 35  1  0
 13 36  1  0
 13 37  1  0
 14 38  1  0
 14 39  1  0
 15 40  1  0
 16 41  1  0
 16 42  1  0
 17 43  1  1
 18 44  1  0
 20 45  1  0
 21 46  1  0
 21 47  1  0
 22 48  1  0
 22 49  1  0
 24 50  1  0
 24 51  1  0
 25 52  1  0
 25 53  1  0
 26 54  1  0
 26 55  1  0
 27 56  1  0
 27 57  1  0
M  CHG  1  15   1
M  END
>  <Molname>  (5) 
Z2945557218

$$$$
